pcf
* control data
restart estimation
   1    24354    1    0    1
    1     1 single point 1 0 0
  5.0   2.0   0.3    0.01  10
  5.0   5.0   0.001
  0.1
   30  0.01     4     3  0.01     3
    1     1     1
* parameter groups
paragroup  relative 0.01  0.0  switch  2.0 parabolic

* parameter data
Ryarea                  fixed  factor    0.224    -1    1    paragroup  1.0  0.0  1
* observation groups
obsgroup

* observation data
sperc272042                   1.0  obsgroup
sperc272044                   1.0  obsgroup
sperc272046               0.005065042    1.0  obsgroup
sperc272048               0.008134418    1.0  obsgroup
sperc272050               0.008134413    1.0  obsgroup
sperc272052               0.007982723    1.0  obsgroup
sperc272054               0.007982718    1.0  obsgroup
sperc272056               0.007982714    1.0  obsgroup
sperc272058               0.007831068    1.0  obsgroup
sperc272100               0.007679421    1.0  obsgroup
sperc272102               0.007831059    1.0  obsgroup
sperc272104               0.007679412    1.0  obsgroup
sperc272106               0.007679407    1.0  obsgroup
sperc272108               0.007527715    1.0  obsgroup
sperc272110               0.007527711    1.0  obsgroup
sperc272112               0.007527706    1.0  obsgroup
sperc272114               0.007527702    1.0  obsgroup
sperc272116               0.007375921    1.0  obsgroup
sperc272118               0.007375917    1.0  obsgroup
sperc272120               0.007224006    1.0  obsgroup
sperc272122               0.007224002    1.0  obsgroup
sperc272124               0.007223998    1.0  obsgroup
sperc272126               0.007071916    1.0  obsgroup
sperc272128               0.007071912    1.0  obsgroup
sperc272130               0.007223986    1.0  obsgroup
sperc272132               0.006919617    1.0  obsgroup
sperc272134               0.0070719    1.0  obsgroup
sperc272136               0.007071896    1.0  obsgroup
sperc272138               0.006767072    1.0  obsgroup
sperc272140               0.006919602    1.0  obsgroup
sperc272142               0.006767065    1.0  obsgroup
sperc272144               0.006767061    1.0  obsgroup
sperc272146               0.006767057    1.0  obsgroup
sperc272148               0.006767054    1.0  obsgroup
sperc272150               0.006614236    1.0  obsgroup
sperc272152               0.006614233    1.0  obsgroup
sperc272154               0.006614229    1.0  obsgroup
sperc272156               0.006461099    1.0  obsgroup
sperc272158               0.006461095    1.0  obsgroup
sperc272200               0.006307622    1.0  obsgroup
sperc272202               0.006461088    1.0  obsgroup
sperc272204               0.006307615    1.0  obsgroup
sperc272206               0.006461081    1.0  obsgroup
sperc272208               0.006307608    1.0  obsgroup
sperc272210               0.006307605    1.0  obsgroup
sperc272212               0.006307602    1.0  obsgroup
sperc272214               0.006307598    1.0  obsgroup
sperc272216               0.006307595    1.0  obsgroup
sperc272218               0.006153753    1.0  obsgroup
sperc272220               0.006307588    1.0  obsgroup
sperc272222               0.006153746    1.0  obsgroup
sperc272224               0.006153743    1.0  obsgroup
sperc272226               0.005999507    1.0  obsgroup
sperc272228               0.005999504    1.0  obsgroup
sperc272230               0.005999501    1.0  obsgroup
sperc272232               0.005999497    1.0  obsgroup
sperc272234               0.005999494    1.0  obsgroup
sperc272236               0.005999491    1.0  obsgroup
sperc272238               0.005844841    1.0  obsgroup
sperc272240               0.005999485    1.0  obsgroup
sperc272242               0.005689756    1.0  obsgroup
sperc272244               0.005844832    1.0  obsgroup
sperc272246               0.00568975    1.0  obsgroup
sperc272248               0.005844826    1.0  obsgroup
sperc272250               0.005534219    1.0  obsgroup
sperc272252               0.005689741    1.0  obsgroup
sperc272254               0.005689738    1.0  obsgroup
sperc272256               0.005689735    1.0  obsgroup
sperc272258               0.005534208    1.0  obsgroup
sperc272300               0.005534205    1.0  obsgroup
sperc272302               0.005378221    1.0  obsgroup
sperc272304               0.005534199    1.0  obsgroup
sperc272306               0.005378216    1.0  obsgroup
sperc272308               0.005378213    1.0  obsgroup
sperc272310               0.005221768    1.0  obsgroup
sperc272312               0.005378207    1.0  obsgroup
sperc272314               0.005378205    1.0  obsgroup
sperc272316               0.00522176    1.0  obsgroup
sperc272318               0.005378199    1.0  obsgroup
sperc272320               0.005221754    1.0  obsgroup
sperc272322               0.005378194    1.0  obsgroup
sperc272324               0.005221749    1.0  obsgroup
sperc272326               0.005378188    1.0  obsgroup
sperc272328               0.005221744    1.0  obsgroup
sperc272330               0.004985696    1.0  obsgroup
sperc272332               0.004749648    1.0  obsgroup
sperc272334               0.005064831    1.0  obsgroup
sperc272336               0.005064828    1.0  obsgroup
sperc272338               0.005064826    1.0  obsgroup
sperc272340               0.005064823    1.0  obsgroup
sperc272342               0.005064821    1.0  obsgroup
sperc272344               0.004907453    1.0  obsgroup
sperc272346               0.005064816    1.0  obsgroup
sperc272348               0.004907448    1.0  obsgroup
sperc272350               0.005064811    1.0  obsgroup
sperc272352               0.004907443    1.0  obsgroup
sperc272354               0.005064806    1.0  obsgroup
sperc272356               0.005378147    1.0  obsgroup
sperc272358               0.005844718    1.0  obsgroup
sperc280000               0.00568964    1.0  obsgroup
sperc280002               0.005689637    1.0  obsgroup
sperc280004               0.005378136    1.0  obsgroup
sperc280006               0.005221694    1.0  obsgroup
sperc280008               0.005378131    1.0  obsgroup
sperc280010               0.005378128    1.0  obsgroup
sperc280012               0.005689622    1.0  obsgroup
sperc280014               0.006153561    1.0  obsgroup
sperc280016               0.006153558    1.0  obsgroup
sperc280018               0.006153555    1.0  obsgroup
sperc280020               0.006153551    1.0  obsgroup
sperc280022               0.005999322    1.0  obsgroup
sperc280024               0.005844678    1.0  obsgroup
sperc280026               0.005844675    1.0  obsgroup
sperc280028               0.005844672    1.0  obsgroup
sperc280030               0.005689596    1.0  obsgroup
sperc280032               0.005689593    1.0  obsgroup
sperc280034               0.00568959    1.0  obsgroup
sperc280036               0.005689587    1.0  obsgroup
sperc280038               0.005689584    1.0  obsgroup
sperc280040               0.005689581    1.0  obsgroup
sperc280042               0.005689578    1.0  obsgroup
sperc280044               0.005844647    1.0  obsgroup
sperc280046               0.005689572    1.0  obsgroup
sperc280048               0.005689569    1.0  obsgroup
sperc280050               0.005999277    1.0  obsgroup
sperc280052               0.006613906    1.0  obsgroup
sperc280054               0.006919228    1.0  obsgroup
sperc280056               0.0070715    1.0  obsgroup
sperc280058               0.007071496    1.0  obsgroup
sperc280100               0.007071493    1.0  obsgroup
sperc280102               0.007223555    1.0  obsgroup
sperc280104               0.007223551    1.0  obsgroup
sperc280106               0.007527206    1.0  obsgroup
sperc280108               0.007527202    1.0  obsgroup
sperc280110               0.007678873    1.0  obsgroup
sperc280112               0.007830498    1.0  obsgroup
sperc280114               0.007830493    1.0  obsgroup
sperc280116               0.007982117    1.0  obsgroup
sperc280118               0.008285545    1.0  obsgroup
sperc280120               0.008589518    1.0  obsgroup
sperc280122               0.00889441    1.0  obsgroup
sperc280124               0.00935429    1.0  obsgroup
sperc280126               0.009818308    1.0  obsgroup
sperc280128               0.01013053    1.0  obsgroup
sperc280130               0.010130524    1.0  obsgroup
sperc280132               0.010445424    1.0  obsgroup
sperc280134               0.010923433    1.0  obsgroup
sperc280136               0.01124625    1.0  obsgroup
sperc280138               0.01190278    1.0  obsgroup
sperc280140               0.012236798    1.0  obsgroup
sperc280142               0.012574792    1.0  obsgroup
sperc280144               0.01343739    1.0  obsgroup
sperc280146               0.013966837    1.0  obsgroup
sperc280148               0.01523406    1.0  obsgroup
sperc280150               0.016537611    1.0  obsgroup
sperc280152               0.018054346    1.0  obsgroup
sperc280154               0.019389219    1.0  obsgroup
sperc280156               0.020531704    1.0  obsgroup
sperc280158               0.022247502    1.0  obsgroup
sperc280200               0.024636703    1.0  obsgroup
sperc280202               0.027214158    1.0  obsgroup
sperc280204               0.029175878    1.0  obsgroup
sperc280206               0.031582136    1.0  obsgroup
sperc280208               0.03474035    1.0  obsgroup
sperc280210               0.038500128    1.0  obsgroup
sperc280212               0.041056777    1.0  obsgroup
sperc280214               0.043613426    1.0  obsgroup
sperc280216               0.046019684    1.0  obsgroup
sperc280218               0.048576333    1.0  obsgroup
sperc280220               0.050080245    1.0  obsgroup
sperc280222               0.051433765    1.0  obsgroup
sperc280224               0.052035329    1.0  obsgroup
sperc280226               0.052336112    1.0  obsgroup
sperc280228               0.05218572    1.0  obsgroup
sperc280230               0.051734547    1.0  obsgroup
sperc280232               0.051283374    1.0  obsgroup
sperc280234               0.050681809    1.0  obsgroup
sperc280236               0.049629071    1.0  obsgroup
sperc280238               0.048877116    1.0  obsgroup
sperc280240               0.04812516    1.0  obsgroup
sperc280242               0.047072422    1.0  obsgroup
sperc280244               0.046170075    1.0  obsgroup
sperc280246               0.045267729    1.0  obsgroup
sperc280248               0.044515773    1.0  obsgroup
sperc280250               0.043312644    1.0  obsgroup
sperc280252               0.042560688    1.0  obsgroup
sperc280254               0.041507951    1.0  obsgroup
sperc280256               0.040906386    1.0  obsgroup
sperc280258               0.040455213    1.0  obsgroup
sperc280300               0.039552866    1.0  obsgroup
sperc280302               0.038951301    1.0  obsgroup
sperc280304               0.038199346    1.0  obsgroup
sperc280306               0.037146608    1.0  obsgroup
sperc280308               0.036996217    1.0  obsgroup
sperc280310               0.03609387    1.0  obsgroup
sperc280312               0.035341914    1.0  obsgroup
sperc280314               0.034589959    1.0  obsgroup
sperc280316               0.034138785    1.0  obsgroup
sperc280318               0.033086048    1.0  obsgroup
sperc280320               0.032785265    1.0  obsgroup
sperc280322               0.032634874    1.0  obsgroup
sperc280324               0.03203331    1.0  obsgroup
sperc280326               0.031431745    1.0  obsgroup
sperc280328               0.030980572    1.0  obsgroup
sperc280330               0.030529398    1.0  obsgroup
sperc280332               0.030228616    1.0  obsgroup
sperc280334               0.029927834    1.0  obsgroup
sperc280336               0.029927834    1.0  obsgroup
sperc280338               0.029025487    1.0  obsgroup
sperc280340               0.028875096    1.0  obsgroup
sperc280342               0.028574314    1.0  obsgroup
sperc280344               0.028273532    1.0  obsgroup
sperc280346               0.02812314    1.0  obsgroup
sperc280348               0.027220794    1.0  obsgroup
sperc280350               0.027145598    1.0  obsgroup
sperc280352               0.027070403    1.0  obsgroup
sperc280354               0.026995207    1.0  obsgroup
sperc280356               0.026920011    1.0  obsgroup
sperc280358               0.026844816    1.0  obsgroup
sperc280400               0.02676962    1.0  obsgroup
sperc280402               0.026204699    1.0  obsgroup
sperc280404               0.025967265    1.0  obsgroup
sperc280406               0.025507205    1.0  obsgroup
sperc280408               0.025064355    1.0  obsgroup
sperc280410               0.024635935    1.0  obsgroup
sperc280412               0.024014962    1.0  obsgroup
sperc280414               0.02361225    1.0  obsgroup
sperc280416               0.023020499    1.0  obsgroup
sperc280418               0.022631971    1.0  obsgroup
sperc280420               0.022055043    1.0  obsgroup
sperc280422               0.022055032    1.0  obsgroup
sperc280424               0.021482272    1.0  obsgroup
sperc280426               0.021291841    1.0  obsgroup
sperc280428               0.02110154    1.0  obsgroup
sperc280430               0.020721126    1.0  obsgroup
sperc280432               0.020721116    1.0  obsgroup
sperc280434               0.020340676    1.0  obsgroup
sperc280436               0.020150373    1.0  obsgroup
sperc280438               0.019959998    1.0  obsgroup
sperc280440               0.019769543    1.0  obsgroup
sperc280442               0.019579007    1.0  obsgroup
sperc280444               0.019197731    1.0  obsgroup
sperc280446               0.019007007    1.0  obsgroup
sperc280448               0.018625506    1.0  obsgroup
sperc280450               0.018625497    1.0  obsgroup
sperc280452               0.018244093    1.0  obsgroup
sperc280454               0.017863048    1.0  obsgroup
sperc280456               0.017482662    1.0  obsgroup
sperc280458               0.017292813    1.0  obsgroup
sperc280500               0.016914037    1.0  obsgroup
sperc280502               0.016536769    1.0  obsgroup
sperc280504               0.016348807    1.0  obsgroup
sperc280506               0.016161354    1.0  obsgroup
sperc280508               0.016161345    1.0  obsgroup
sperc280510               0.015602484    1.0  obsgroup
sperc280512               0.015417487    1.0  obsgroup
sperc280514               0.015233203    1.0  obsgroup
sperc280516               0.015233195    1.0  obsgroup
sperc280518               0.01504966    1.0  obsgroup
sperc280520               0.014684981    1.0  obsgroup
sperc280522               0.014503891    1.0  obsgroup
sperc280524               0.014323676    1.0  obsgroup
sperc280526               0.014323668    1.0  obsgroup
sperc280528               0.014144352    1.0  obsgroup
sperc280530               0.013788516    1.0  obsgroup
sperc280532               0.013612027    1.0  obsgroup
sperc280534               0.013612019    1.0  obsgroup
sperc280536               0.013261988    1.0  obsgroup
sperc280538               0.013088461    1.0  obsgroup
sperc280540               0.012915937    1.0  obsgroup
sperc280542               0.012744422    1.0  obsgroup
sperc280544               0.012573916    1.0  obsgroup
sperc280546               0.012573909    1.0  obsgroup
sperc280548               0.01240441    1.0  obsgroup
sperc280550               0.012235913    1.0  obsgroup
sperc280552               0.012068412    1.0  obsgroup
sperc280554               0.011901895    1.0  obsgroup
sperc280556               0.011901888    1.0  obsgroup
sperc280558               0.011901881    1.0  obsgroup
sperc280600               0.011736336    1.0  obsgroup
sperc280602               0.011571747    1.0  obsgroup
sperc280604               0.011408096    1.0  obsgroup
sperc280606               0.011245362    1.0  obsgroup
sperc280608               0.011083522    1.0  obsgroup
sperc280610               0.011083515    1.0  obsgroup
sperc280612               0.011083509    1.0  obsgroup
sperc280614               0.011083502    1.0  obsgroup
sperc280616               0.01092253    1.0  obsgroup
sperc280618               0.010762399    1.0  obsgroup
sperc280620               0.010603077    1.0  obsgroup
sperc280622               0.010444534    1.0  obsgroup
sperc280624               0.010444527    1.0  obsgroup
sperc280626               0.010444521    1.0  obsgroup
sperc280628               0.010444515    1.0  obsgroup
sperc280630               0.010286716    1.0  obsgroup
sperc280632               0.01028671    1.0  obsgroup
sperc280634               0.010129619    1.0  obsgroup
sperc280636               0.009973198    1.0  obsgroup
sperc280638               0.009817408    1.0  obsgroup
sperc280640               0.009817402    1.0  obsgroup
sperc280642               0.009817397    1.0  obsgroup
sperc280644               0.009817391    1.0  obsgroup
sperc280646               0.009662192    1.0  obsgroup
sperc280648               0.009507541    1.0  obsgroup
sperc280650               0.009507535    1.0  obsgroup
sperc280652               0.00935339    1.0  obsgroup
sperc280654               0.009353384    1.0  obsgroup
sperc280656               0.009353379    1.0  obsgroup
sperc280658               0.009199694    1.0  obsgroup
sperc280700               0.009199689    1.0  obsgroup
sperc280702               0.009199683    1.0  obsgroup
sperc280704               0.009046415    1.0  obsgroup
sperc280706               0.009046409    1.0  obsgroup
sperc280708               0.009046404    1.0  obsgroup
sperc280710               0.008740936    1.0  obsgroup
sperc280712               0.008893501    1.0  obsgroup
sperc280714               0.008740926    1.0  obsgroup
sperc280716               0.008740921    1.0  obsgroup
sperc280718               0.008588624    1.0  obsgroup
sperc280720               0.008436556    1.0  obsgroup
sperc280722               0.008588614    1.0  obsgroup
sperc280724               0.008436547    1.0  obsgroup
sperc280726               0.008436542    1.0  obsgroup
sperc280728               0.008436537    1.0  obsgroup
sperc280730               0.008436532    1.0  obsgroup
sperc280732               0.008436527    1.0  obsgroup
sperc280734               0.008284644    1.0  obsgroup
sperc280736               0.008284639    1.0  obsgroup
sperc280738               0.008132892    1.0  obsgroup
sperc280740               0.008284629    1.0  obsgroup
sperc280742               0.008132883    1.0  obsgroup
sperc280744               0.008132878    1.0  obsgroup
sperc280746               0.007981221    1.0  obsgroup
sperc280748               0.007981217    1.0  obsgroup
sperc280750               0.007981212    1.0  obsgroup
sperc280752               0.0078296    1.0  obsgroup
sperc280754               0.007829596    1.0  obsgroup
sperc280756               0.007829591    1.0  obsgroup
sperc280758               0.007829587    1.0  obsgroup
sperc280800               0.007829582    1.0  obsgroup
sperc280802               0.007829578    1.0  obsgroup
sperc280804               0.007829573    1.0  obsgroup
sperc280806               0.007677961    1.0  obsgroup
sperc280808               0.007829564    1.0  obsgroup
sperc280810               0.007677952    1.0  obsgroup
sperc280812               0.007677948    1.0  obsgroup
sperc280814               0.007677943    1.0  obsgroup
sperc280816               0.007526286    1.0  obsgroup
sperc280818               0.007677934    1.0  obsgroup
sperc280820               0.007374536    1.0  obsgroup
sperc280822               0.007677926    1.0  obsgroup
sperc280824               0.007526269    1.0  obsgroup
sperc280826               0.007829524    1.0  obsgroup
sperc280828               0.007829519    1.0  obsgroup
sperc280830               0.00813277    1.0  obsgroup
sperc280832               0.008132765    1.0  obsgroup
sperc280834               0.008436375    1.0  obsgroup
sperc280836               0.00843637    1.0  obsgroup
sperc280838               0.008893277    1.0  obsgroup
sperc280840               0.009199419    1.0  obsgroup
sperc280842               0.00981705    1.0  obsgroup
sperc280844               0.010129232    1.0  obsgroup
sperc280846               0.01092205    1.0  obsgroup
sperc280848               0.01140755    1.0  obsgroup
sperc280850               0.012235276    1.0  obsgroup
sperc280852               0.013611257    1.0  obsgroup
sperc280854               0.015232287    1.0  obsgroup
sperc280856               0.016912986    1.0  obsgroup
sperc280858               0.018624326    1.0  obsgroup
sperc280900               0.020339347    1.0  obsgroup
sperc280902               0.022630432    1.0  obsgroup
sperc280904               0.026445623    1.0  obsgroup
sperc280906               0.028574314    1.0  obsgroup
sperc280908               0.033687612    1.0  obsgroup
sperc280910               0.039853648    1.0  obsgroup
sperc280912               0.046170075    1.0  obsgroup
sperc280914               0.053088067    1.0  obsgroup
sperc280916               0.058201365    1.0  obsgroup
sperc280918               0.065570531    1.0  obsgroup
sperc280920               0.072488522    1.0  obsgroup
sperc280922               0.077902603    1.0  obsgroup
sperc280924               0.081361599    1.0  obsgroup
sperc280926               0.084820595    1.0  obsgroup
sperc280928               0.088129199    1.0  obsgroup
sperc280930               0.09083624    1.0  obsgroup
sperc280932               0.093092106    1.0  obsgroup
sperc280934               0.095347973    1.0  obsgroup
sperc280936               0.10031088    1.0  obsgroup
sperc280938               0.106025743    1.0  obsgroup
sperc280940               0.11098865    1.0  obsgroup
sperc280942               0.115199602    1.0  obsgroup
sperc280944               0.115500384    1.0  obsgroup
sperc280946               0.113094126    1.0  obsgroup
sperc280948               0.114447646    1.0  obsgroup
sperc280950               0.117455469    1.0  obsgroup
sperc280952               0.118057033    1.0  obsgroup
sperc280954               0.118357815    1.0  obsgroup
sperc280956               0.118808989    1.0  obsgroup
sperc280958               0.11895938    1.0  obsgroup
sperc281000               0.120764073    1.0  obsgroup
sperc281002               0.120463291    1.0  obsgroup
sperc281004               0.119861727    1.0  obsgroup
sperc281006               0.120162509    1.0  obsgroup
sperc281008               0.120914465    1.0  obsgroup
sperc281010               0.120914465    1.0  obsgroup
sperc281012               0.121064856    1.0  obsgroup
sperc281014               0.120613682    1.0  obsgroup
sperc281016               0.121064856    1.0  obsgroup
sperc281018               0.121215247    1.0  obsgroup
sperc281020               0.121064856    1.0  obsgroup
sperc281022               0.120613682    1.0  obsgroup
sperc281024               0.120012118    1.0  obsgroup
sperc281026               0.119711336    1.0  obsgroup
sperc281028               0.119109771    1.0  obsgroup
sperc281030               0.117906642    1.0  obsgroup
sperc281032               0.118207424    1.0  obsgroup
sperc281034               0.117756251    1.0  obsgroup
sperc281036               0.117455469    1.0  obsgroup
sperc281038               0.11760586    1.0  obsgroup
sperc281040               0.117004295    1.0  obsgroup
sperc281042               0.11760586    1.0  obsgroup
sperc281044               0.117756251    1.0  obsgroup
sperc281046               0.119260162    1.0  obsgroup
sperc281048               0.123471114    1.0  obsgroup
sperc281050               0.124674243    1.0  obsgroup
sperc281052               0.124523852    1.0  obsgroup
sperc281054               0.126478936    1.0  obsgroup
sperc281056               0.127982847    1.0  obsgroup
sperc281058               0.12828363    1.0  obsgroup
sperc281100               0.128885194    1.0  obsgroup
sperc281102               0.130088323    1.0  obsgroup
sperc281104               0.131141061    1.0  obsgroup
sperc281106               0.132644972    1.0  obsgroup
sperc281108               0.133547319    1.0  obsgroup
sperc281110               0.134148884    1.0  obsgroup
sperc281112               0.132795363    1.0  obsgroup
sperc281114               0.133096146    1.0  obsgroup
sperc281116               0.134299275    1.0  obsgroup
sperc281118               0.134600057    1.0  obsgroup
sperc281120               0.133396928    1.0  obsgroup
sperc281122               0.134148884    1.0  obsgroup
sperc281124               0.134299275    1.0  obsgroup
sperc281126               0.135352013    1.0  obsgroup
sperc281128               0.137156706    1.0  obsgroup
sperc281130               0.139562964    1.0  obsgroup
sperc281132               0.139412573    1.0  obsgroup
sperc281134               0.139713355    1.0  obsgroup
sperc281136               0.138359835    1.0  obsgroup
sperc281138               0.137457488    1.0  obsgroup
sperc281140               0.13640475    1.0  obsgroup
sperc281142               0.137457488    1.0  obsgroup
sperc281144               0.137307097    1.0  obsgroup
sperc281146               0.138359835    1.0  obsgroup
sperc281148               0.139262182    1.0  obsgroup
sperc281150               0.139562964    1.0  obsgroup
sperc281152               0.138510226    1.0  obsgroup
sperc281154               0.137156706    1.0  obsgroup
sperc281156               0.135502404    1.0  obsgroup
sperc281158               0.134148884    1.0  obsgroup
sperc281200               0.132644972    1.0  obsgroup
sperc281202               0.129185976    1.0  obsgroup
sperc281204               0.126478936    1.0  obsgroup
sperc281206               0.12301994    1.0  obsgroup
sperc281208               0.1203129    1.0  obsgroup
sperc281210               0.116553122    1.0  obsgroup
sperc281212               0.113094126    1.0  obsgroup
sperc281214               0.108582392    1.0  obsgroup
sperc281216               0.104822614    1.0  obsgroup
sperc281218               0.100762054    1.0  obsgroup
sperc281220               0.096551102    1.0  obsgroup
sperc281222               0.092791324    1.0  obsgroup
sperc281224               0.088881155    1.0  obsgroup
sperc281226               0.084519812    1.0  obsgroup
sperc281228               0.080459252    1.0  obsgroup
sperc281230               0.0762483    1.0  obsgroup
sperc281232               0.072638913    1.0  obsgroup
sperc281234               0.069029526    1.0  obsgroup
sperc281236               0.065119357    1.0  obsgroup
sperc281238               0.06150997    1.0  obsgroup
sperc281240               0.05880293    1.0  obsgroup
sperc281242               0.055193543    1.0  obsgroup
sperc281244               0.052336112    1.0  obsgroup
sperc281246               0.049328289    1.0  obsgroup
sperc281248               0.046320467    1.0  obsgroup
sperc281250               0.044214991    1.0  obsgroup
sperc281252               0.041808733    1.0  obsgroup
sperc281254               0.039402475    1.0  obsgroup
sperc281256               0.037296999    1.0  obsgroup
sperc281258               0.035341914    1.0  obsgroup
sperc281300               0.033236439    1.0  obsgroup
sperc281302               0.032183701    1.0  obsgroup
sperc281304               0.030529398    1.0  obsgroup
sperc281306               0.029476661    1.0  obsgroup
sperc281308               0.028724705    1.0  obsgroup
sperc281310               0.027521576    1.0  obsgroup
sperc281312               0.027371185    1.0  obsgroup
sperc281314               0.027220794    1.0  obsgroup
sperc281316               0.02714164    1.0  obsgroup
sperc281318               0.027062487    1.0  obsgroup
sperc281320               0.026983334    1.0  obsgroup
sperc281322               0.026904181    1.0  obsgroup
sperc281324               0.026825028    1.0  obsgroup
sperc281326               0.026745874    1.0  obsgroup
sperc281328               0.026666721    1.0  obsgroup
sperc281330               0.026587568    1.0  obsgroup
sperc281332               0.026508415    1.0  obsgroup
sperc281334               0.026429261    1.0  obsgroup
sperc281336               0.026350108    1.0  obsgroup
sperc281338               0.026270955    1.0  obsgroup
sperc281340               0.026191802    1.0  obsgroup
sperc281342               0.026112648    1.0  obsgroup
sperc281344               0.026033495    1.0  obsgroup
sperc281346               0.025954342    1.0  obsgroup
sperc281348               0.025875189    1.0  obsgroup
sperc281350               0.025796036    1.0  obsgroup
sperc281352               0.025731231    1.0  obsgroup
sperc281354               0.025280227    1.0  obsgroup
sperc281356               0.024845    1.0  obsgroup
sperc281358               0.024216044    1.0  obsgroup
sperc281400               0.023809302    1.0  obsgroup
sperc281402               0.023017274    1.0  obsgroup
sperc281404               0.022243624    1.0  obsgroup
sperc281406               0.021860712    1.0  obsgroup
sperc281408               0.021288838    1.0  obsgroup
sperc281410               0.02090836    1.0  obsgroup
sperc281412               0.020718182    1.0  obsgroup
sperc281414               0.020337779    1.0  obsgroup
sperc281416               0.020147495    1.0  obsgroup
sperc281418               0.01976671    1.0  obsgroup
sperc281420               0.019576192    1.0  obsgroup
sperc281422               0.019004254    1.0  obsgroup
sperc281424               0.018622788    1.0  obsgroup
sperc281426               0.018432071    1.0  obsgroup
sperc281428               0.017860408    1.0  obsgroup
sperc281430               0.017480056    1.0  obsgroup
sperc281432               0.016911491    1.0  obsgroup
sperc281434               0.016346324    1.0  obsgroup
sperc281436               0.016158889    1.0  obsgroup
sperc281438               0.015785726    1.0  obsgroup