pcf
* control data
restart estimation
   1    24354    1    0    1
    1     1 single point 1 0 0
  5.0   2.0   0.3    0.01  10
  5.0   5.0   0.001
  0.1
   30  0.01     4     3  0.01     3
    1     1     1
* parameter groups
paragroup  relative 0.01  0.0  switch  2.0 parabolic

* parameter data
LDwidth                  fixed  factor    15.76    2    2    paragroup  1.0  0.0  1
* observation groups
obsgroup

* observation data
srunoff272042                   1.0  obsgroup
srunoff272044                   1.0  obsgroup
srunoff272046               0.005065042    1.0  obsgroup
srunoff272048               0.008134418    1.0  obsgroup
srunoff272050               0.008134413    1.0  obsgroup
srunoff272052               0.007982723    1.0  obsgroup
srunoff272054               0.007982718    1.0  obsgroup
srunoff272056               0.007982714    1.0  obsgroup
srunoff272058               0.007831068    1.0  obsgroup
srunoff272100               0.007679421    1.0  obsgroup
srunoff272102               0.007831059    1.0  obsgroup
srunoff272104               0.007679412    1.0  obsgroup
srunoff272106               0.007679407    1.0  obsgroup
srunoff272108               0.007527715    1.0  obsgroup
srunoff272110               0.007527711    1.0  obsgroup
srunoff272112               0.007527706    1.0  obsgroup
srunoff272114               0.007527702    1.0  obsgroup
srunoff272116               0.007375921    1.0  obsgroup
srunoff272118               0.007375917    1.0  obsgroup
srunoff272120               0.007224006    1.0  obsgroup
srunoff272122               0.007224002    1.0  obsgroup
srunoff272124               0.007223998    1.0  obsgroup
srunoff272126               0.007071916    1.0  obsgroup
srunoff272128               0.007071912    1.0  obsgroup
srunoff272130               0.007223986    1.0  obsgroup
srunoff272132               0.006919617    1.0  obsgroup
srunoff272134               0.0070719    1.0  obsgroup
srunoff272136               0.007071896    1.0  obsgroup
srunoff272138               0.006767072    1.0  obsgroup
srunoff272140               0.006919602    1.0  obsgroup
srunoff272142               0.006767065    1.0  obsgroup
srunoff272144               0.006767061    1.0  obsgroup
srunoff272146               0.006767057    1.0  obsgroup
srunoff272148               0.006767054    1.0  obsgroup
srunoff272150               0.006614236    1.0  obsgroup
srunoff272152               0.006614233    1.0  obsgroup
srunoff272154               0.006614229    1.0  obsgroup
srunoff272156               0.006461099    1.0  obsgroup
srunoff272158               0.006461095    1.0  obsgroup
srunoff272200               0.006307622    1.0  obsgroup
srunoff272202               0.006461088    1.0  obsgroup
srunoff272204               0.006307615    1.0  obsgroup
srunoff272206               0.006461081    1.0  obsgroup
srunoff272208               0.006307608    1.0  obsgroup
srunoff272210               0.006307605    1.0  obsgroup
srunoff272212               0.006307602    1.0  obsgroup
srunoff272214               0.006307598    1.0  obsgroup
srunoff272216               0.006307595    1.0  obsgroup
srunoff272218               0.006153753    1.0  obsgroup
srunoff272220               0.006307588    1.0  obsgroup
srunoff272222               0.006153746    1.0  obsgroup
srunoff272224               0.006153743    1.0  obsgroup
srunoff272226               0.005999507    1.0  obsgroup
srunoff272228               0.005999504    1.0  obsgroup
srunoff272230               0.005999501    1.0  obsgroup
srunoff272232               0.005999497    1.0  obsgroup
srunoff272234               0.005999494    1.0  obsgroup
srunoff272236               0.005999491    1.0  obsgroup
srunoff272238               0.005844841    1.0  obsgroup
srunoff272240               0.005999485    1.0  obsgroup
srunoff272242               0.005689756    1.0  obsgroup
srunoff272244               0.005844832    1.0  obsgroup
srunoff272246               0.00568975    1.0  obsgroup
srunoff272248               0.005844826    1.0  obsgroup
srunoff272250               0.005534219    1.0  obsgroup
srunoff272252               0.005689741    1.0  obsgroup
srunoff272254               0.005689738    1.0  obsgroup
srunoff272256               0.005689735    1.0  obsgroup
srunoff272258               0.005534208    1.0  obsgroup
srunoff272300               0.005534205    1.0  obsgroup
srunoff272302               0.005378221    1.0  obsgroup
srunoff272304               0.005534199    1.0  obsgroup
srunoff272306               0.005378216    1.0  obsgroup
srunoff272308               0.005378213    1.0  obsgroup
srunoff272310               0.005221768    1.0  obsgroup
srunoff272312               0.005378207    1.0  obsgroup
srunoff272314               0.005378205    1.0  obsgroup
srunoff272316               0.00522176    1.0  obsgroup
srunoff272318               0.005378199    1.0  obsgroup
srunoff272320               0.005221754    1.0  obsgroup
srunoff272322               0.005378194    1.0  obsgroup
srunoff272324               0.005221749    1.0  obsgroup
srunoff272326               0.005378188    1.0  obsgroup
srunoff272328               0.005221744    1.0  obsgroup
srunoff272330               0.004985696    1.0  obsgroup
srunoff272332               0.004749648    1.0  obsgroup
srunoff272334               0.005064831    1.0  obsgroup
srunoff272336               0.005064828    1.0  obsgroup
srunoff272338               0.005064826    1.0  obsgroup
srunoff272340               0.005064823    1.0  obsgroup
srunoff272342               0.005064821    1.0  obsgroup
srunoff272344               0.004907453    1.0  obsgroup
srunoff272346               0.005064816    1.0  obsgroup
srunoff272348               0.004907448    1.0  obsgroup
srunoff272350               0.005064811    1.0  obsgroup
srunoff272352               0.004907443    1.0  obsgroup
srunoff272354               0.005064806    1.0  obsgroup
srunoff272356               0.005378147    1.0  obsgroup
srunoff272358               0.005844718    1.0  obsgroup
srunoff280000               0.00568964    1.0  obsgroup
srunoff280002               0.005689637    1.0  obsgroup
srunoff280004               0.005378136    1.0  obsgroup
srunoff280006               0.005221694    1.0  obsgroup
srunoff280008               0.005378131    1.0  obsgroup
srunoff280010               0.005378128    1.0  obsgroup
srunoff280012               0.005689622    1.0  obsgroup
srunoff280014               0.006153561    1.0  obsgroup
srunoff280016               0.006153558    1.0  obsgroup
srunoff280018               0.006153555    1.0  obsgroup
srunoff280020               0.006153551    1.0  obsgroup
srunoff280022               0.005999322    1.0  obsgroup
srunoff280024               0.005844678    1.0  obsgroup
srunoff280026               0.005844675    1.0  obsgroup
srunoff280028               0.005844672    1.0  obsgroup
srunoff280030               0.005689596    1.0  obsgroup
srunoff280032               0.005689593    1.0  obsgroup
srunoff280034               0.00568959    1.0  obsgroup
srunoff280036               0.005689587    1.0  obsgroup
srunoff280038               0.005689584    1.0  obsgroup
srunoff280040               0.005689581    1.0  obsgroup
srunoff280042               0.005689578    1.0  obsgroup
srunoff280044               0.005844647    1.0  obsgroup
srunoff280046               0.005689572    1.0  obsgroup
srunoff280048               0.005689569    1.0  obsgroup
srunoff280050               0.005999277    1.0  obsgroup
srunoff280052               0.006613906    1.0  obsgroup
srunoff280054               0.006919228    1.0  obsgroup
srunoff280056               0.0070715    1.0  obsgroup
srunoff280058               0.007071496    1.0  obsgroup
srunoff280100               0.007071493    1.0  obsgroup
srunoff280102               0.007223555    1.0  obsgroup
srunoff280104               0.007223551    1.0  obsgroup
srunoff280106               0.007527206    1.0  obsgroup
srunoff280108               0.007527202    1.0  obsgroup
srunoff280110               0.007678873    1.0  obsgroup
srunoff280112               0.007830498    1.0  obsgroup
srunoff280114               0.007830493    1.0  obsgroup
srunoff280116               0.007982117    1.0  obsgroup
srunoff280118               0.008285545    1.0  obsgroup
srunoff280120               0.008589518    1.0  obsgroup
srunoff280122               0.00889441    1.0  obsgroup
srunoff280124               0.00935429    1.0  obsgroup
srunoff280126               0.009818308    1.0  obsgroup
srunoff280128               0.01013053    1.0  obsgroup
srunoff280130               0.010130524    1.0  obsgroup
srunoff280132               0.010445424    1.0  obsgroup
srunoff280134               0.010923433    1.0  obsgroup
srunoff280136               0.01124625    1.0  obsgroup
srunoff280138               0.01190278    1.0  obsgroup
srunoff280140               0.012236798    1.0  obsgroup
srunoff280142               0.012574792    1.0  obsgroup
srunoff280144               0.01343739    1.0  obsgroup
srunoff280146               0.013966837    1.0  obsgroup
srunoff280148               0.01523406    1.0  obsgroup
srunoff280150               0.016537611    1.0  obsgroup
srunoff280152               0.018054346    1.0  obsgroup
srunoff280154               0.019389219    1.0  obsgroup
srunoff280156               0.020531704    1.0  obsgroup
srunoff280158               0.022247502    1.0  obsgroup
srunoff280200               0.024636703    1.0  obsgroup
srunoff280202               0.027214158    1.0  obsgroup
srunoff280204               0.029175878    1.0  obsgroup
srunoff280206               0.031582136    1.0  obsgroup
srunoff280208               0.03474035    1.0  obsgroup
srunoff280210               0.038500128    1.0  obsgroup
srunoff280212               0.041056777    1.0  obsgroup
srunoff280214               0.043613426    1.0  obsgroup
srunoff280216               0.046019684    1.0  obsgroup
srunoff280218               0.048576333    1.0  obsgroup
srunoff280220               0.050080245    1.0  obsgroup
srunoff280222               0.051433765    1.0  obsgroup
srunoff280224               0.052035329    1.0  obsgroup
srunoff280226               0.052336112    1.0  obsgroup
srunoff280228               0.05218572    1.0  obsgroup
srunoff280230               0.051734547    1.0  obsgroup
srunoff280232               0.051283374    1.0  obsgroup
srunoff280234               0.050681809    1.0  obsgroup
srunoff280236               0.049629071    1.0  obsgroup
srunoff280238               0.048877116    1.0  obsgroup
srunoff280240               0.04812516    1.0  obsgroup
srunoff280242               0.047072422    1.0  obsgroup
srunoff280244               0.046170075    1.0  obsgroup
srunoff280246               0.045267729    1.0  obsgroup
srunoff280248               0.044515773    1.0  obsgroup
srunoff280250               0.043312644    1.0  obsgroup
srunoff280252               0.042560688    1.0  obsgroup
srunoff280254               0.041507951    1.0  obsgroup
srunoff280256               0.040906386    1.0  obsgroup
srunoff280258               0.040455213    1.0  obsgroup
srunoff280300               0.039552866    1.0  obsgroup
srunoff280302               0.038951301    1.0  obsgroup
srunoff280304               0.038199346    1.0  obsgroup
srunoff280306               0.037146608    1.0  obsgroup
srunoff280308               0.036996217    1.0  obsgroup
srunoff280310               0.03609387    1.0  obsgroup
srunoff280312               0.035341914    1.0  obsgroup
srunoff280314               0.034589959    1.0  obsgroup
srunoff280316               0.034138785    1.0  obsgroup
srunoff280318               0.033086048    1.0  obsgroup
srunoff280320               0.032785265    1.0  obsgroup
srunoff280322               0.032634874    1.0  obsgroup
srunoff280324               0.03203331    1.0  obsgroup
srunoff280326               0.031431745    1.0  obsgroup
srunoff280328               0.030980572    1.0  obsgroup
srunoff280330               0.030529398    1.0  obsgroup
srunoff280332               0.030228616    1.0  obsgroup
srunoff280334               0.029927834    1.0  obsgroup
srunoff280336               0.029927834    1.0  obsgroup
srunoff280338               0.029025487    1.0  obsgroup
srunoff280340               0.028875096    1.0  obsgroup
srunoff280342               0.028574314    1.0  obsgroup
srunoff280344               0.028273532    1.0  obsgroup
srunoff280346               0.02812314    1.0  obsgroup
srunoff280348               0.027220794    1.0  obsgroup
srunoff280350               0.027145598    1.0  obsgroup
srunoff280352               0.027070403    1.0  obsgroup
srunoff280354               0.026995207    1.0  obsgroup
srunoff280356               0.026920011    1.0  obsgroup
srunoff280358               0.026844816    1.0  obsgroup
srunoff280400               0.02676962    1.0  obsgroup
srunoff280402               0.026204699    1.0  obsgroup
srunoff280404               0.025967265    1.0  obsgroup
srunoff280406               0.025507205    1.0  obsgroup
srunoff280408               0.025064355    1.0  obsgroup
srunoff280410               0.024635935    1.0  obsgroup
srunoff280412               0.024014962    1.0  obsgroup
srunoff280414               0.02361225    1.0  obsgroup
srunoff280416               0.023020499    1.0  obsgroup
srunoff280418               0.022631971    1.0  obsgroup
srunoff280420               0.022055043    1.0  obsgroup
srunoff280422               0.022055032    1.0  obsgroup
srunoff280424               0.021482272    1.0  obsgroup
srunoff280426               0.021291841    1.0  obsgroup
srunoff280428               0.02110154    1.0  obsgroup
srunoff280430               0.020721126    1.0  obsgroup
srunoff280432               0.020721116    1.0  obsgroup
srunoff280434               0.020340676    1.0  obsgroup
srunoff280436               0.020150373    1.0  obsgroup
srunoff280438               0.019959998    1.0  obsgroup
srunoff280440               0.019769543    1.0  obsgroup
srunoff280442               0.019579007    1.0  obsgroup
srunoff280444               0.019197731    1.0  obsgroup
srunoff280446               0.019007007    1.0  obsgroup
srunoff280448               0.018625506    1.0  obsgroup
srunoff280450               0.018625497    1.0  obsgroup
srunoff280452               0.018244093    1.0  obsgroup
srunoff280454               0.017863048    1.0  obsgroup
srunoff280456               0.017482662    1.0  obsgroup
srunoff280458               0.017292813    1.0  obsgroup
srunoff280500               0.016914037    1.0  obsgroup
srunoff280502               0.016536769    1.0  obsgroup
srunoff280504               0.016348807    1.0  obsgroup
srunoff280506               0.016161354    1.0  obsgroup
srunoff280508               0.016161345    1.0  obsgroup
srunoff280510               0.015602484    1.0  obsgroup
srunoff280512               0.015417487    1.0  obsgroup
srunoff280514               0.015233203    1.0  obsgroup
srunoff280516               0.015233195    1.0  obsgroup
srunoff280518               0.01504966    1.0  obsgroup
srunoff280520               0.014684981    1.0  obsgroup
srunoff280522               0.014503891    1.0  obsgroup
srunoff280524               0.014323676    1.0  obsgroup
srunoff280526               0.014323668    1.0  obsgroup
srunoff280528               0.014144352    1.0  obsgroup
srunoff280530               0.013788516    1.0  obsgroup
srunoff280532               0.013612027    1.0  obsgroup
srunoff280534               0.013612019    1.0  obsgroup
srunoff280536               0.013261988    1.0  obsgroup
srunoff280538               0.013088461    1.0  obsgroup
srunoff280540               0.012915937    1.0  obsgroup
srunoff280542               0.012744422    1.0  obsgroup
srunoff280544               0.012573916    1.0  obsgroup
srunoff280546               0.012573909    1.0  obsgroup
srunoff280548               0.01240441    1.0  obsgroup
srunoff280550               0.012235913    1.0  obsgroup
srunoff280552               0.012068412    1.0  obsgroup
srunoff280554               0.011901895    1.0  obsgroup
srunoff280556               0.011901888    1.0  obsgroup
srunoff280558               0.011901881    1.0  obsgroup
srunoff280600               0.011736336    1.0  obsgroup
srunoff280602               0.011571747    1.0  obsgroup
srunoff280604               0.011408096    1.0  obsgroup
srunoff280606               0.011245362    1.0  obsgroup
srunoff280608               0.011083522    1.0  obsgroup
srunoff280610               0.011083515    1.0  obsgroup
srunoff280612               0.011083509    1.0  obsgroup
srunoff280614               0.011083502    1.0  obsgroup
srunoff280616               0.01092253    1.0  obsgroup
srunoff280618               0.010762399    1.0  obsgroup
srunoff280620               0.010603077    1.0  obsgroup
srunoff280622               0.010444534    1.0  obsgroup
srunoff280624               0.010444527    1.0  obsgroup
srunoff280626               0.010444521    1.0  obsgroup
srunoff280628               0.010444515    1.0  obsgroup
srunoff280630               0.010286716    1.0  obsgroup
srunoff280632               0.01028671    1.0  obsgroup
srunoff280634               0.010129619    1.0  obsgroup
srunoff280636               0.009973198    1.0  obsgroup
srunoff280638               0.009817408    1.0  obsgroup
srunoff280640               0.009817402    1.0  obsgroup
srunoff280642               0.009817397    1.0  obsgroup
srunoff280644               0.009817391    1.0  obsgroup
srunoff280646               0.009662192    1.0  obsgroup
srunoff280648               0.009507541    1.0  obsgroup
srunoff280650               0.009507535    1.0  obsgroup
srunoff280652               0.00935339    1.0  obsgroup
srunoff280654               0.009353384    1.0  obsgroup
srunoff280656               0.009353379    1.0  obsgroup
srunoff280658               0.009199694    1.0  obsgroup
srunoff280700               0.009199689    1.0  obsgroup
srunoff280702               0.009199683    1.0  obsgroup
srunoff280704               0.009046415    1.0  obsgroup
srunoff280706               0.009046409    1.0  obsgroup
srunoff280708               0.009046404    1.0  obsgroup
srunoff280710               0.008740936    1.0  obsgroup
srunoff280712               0.008893501    1.0  obsgroup
srunoff280714               0.008740926    1.0  obsgroup
srunoff280716               0.008740921    1.0  obsgroup
srunoff280718               0.008588624    1.0  obsgroup
srunoff280720               0.008436556    1.0  obsgroup
srunoff280722               0.008588614    1.0  obsgroup
srunoff280724               0.008436547    1.0  obsgroup
srunoff280726               0.008436542    1.0  obsgroup
srunoff280728               0.008436537    1.0  obsgroup
srunoff280730               0.008436532    1.0  obsgroup
srunoff280732               0.008436527    1.0  obsgroup
srunoff280734               0.008284644    1.0  obsgroup
srunoff280736               0.008284639    1.0  obsgroup
srunoff280738               0.008132892    1.0  obsgroup
srunoff280740               0.008284629    1.0  obsgroup
srunoff280742               0.008132883    1.0  obsgroup
srunoff280744               0.008132878    1.0  obsgroup
srunoff280746               0.007981221    1.0  obsgroup
srunoff280748               0.007981217    1.0  obsgroup
srunoff280750               0.007981212    1.0  obsgroup
srunoff280752               0.0078296    1.0  obsgroup
srunoff280754               0.007829596    1.0  obsgroup
srunoff280756               0.007829591    1.0  obsgroup
srunoff280758               0.007829587    1.0  obsgroup
srunoff280800               0.007829582    1.0  obsgroup
srunoff280802               0.007829578    1.0  obsgroup
srunoff280804               0.007829573    1.0  obsgroup
srunoff280806               0.007677961    1.0  obsgroup
srunoff280808               0.007829564    1.0  obsgroup
srunoff280810               0.007677952    1.0  obsgroup
srunoff280812               0.007677948    1.0  obsgroup
srunoff280814               0.007677943    1.0  obsgroup
srunoff280816               0.007526286    1.0  obsgroup
srunoff280818               0.007677934    1.0  obsgroup
srunoff280820               0.007374536    1.0  obsgroup
srunoff280822               0.007677926    1.0  obsgroup
srunoff280824               0.007526269    1.0  obsgroup
srunoff280826               0.007829524    1.0  obsgroup
srunoff280828               0.007829519    1.0  obsgroup
srunoff280830               0.00813277    1.0  obsgroup
srunoff280832               0.008132765    1.0  obsgroup
srunoff280834               0.008436375    1.0  obsgroup
srunoff280836               0.00843637    1.0  obsgroup
srunoff280838               0.008893277    1.0  obsgroup
srunoff280840               0.009199419    1.0  obsgroup
srunoff280842               0.00981705    1.0  obsgroup
srunoff280844               0.010129232    1.0  obsgroup
srunoff280846               0.01092205    1.0  obsgroup
srunoff280848               0.01140755    1.0  obsgroup
srunoff280850               0.012235276    1.0  obsgroup
srunoff280852               0.013611257    1.0  obsgroup
srunoff280854               0.015232287    1.0  obsgroup
srunoff280856               0.016912986    1.0  obsgroup
srunoff280858               0.018624326    1.0  obsgroup
srunoff280900               0.020339347    1.0  obsgroup
srunoff280902               0.022630432    1.0  obsgroup
srunoff280904               0.026445623    1.0  obsgroup
srunoff280906               0.028574314    1.0  obsgroup
srunoff280908               0.033687612    1.0  obsgroup
srunoff280910               0.039853648    1.0  obsgroup
srunoff280912               0.046170075    1.0  obsgroup
srunoff280914               0.053088067    1.0  obsgroup
srunoff280916               0.058201365    1.0  obsgroup
srunoff280918               0.065570531    1.0  obsgroup
srunoff280920               0.072488522    1.0  obsgroup
srunoff280922               0.077902603    1.0  obsgroup
srunoff280924               0.081361599    1.0  obsgroup
srunoff280926               0.084820595    1.0  obsgroup
srunoff280928               0.088129199    1.0  obsgroup
srunoff280930               0.09083624    1.0  obsgroup
srunoff280932               0.093092106    1.0  obsgroup
srunoff280934               0.095347973    1.0  obsgroup
srunoff280936               0.10031088    1.0  obsgroup
srunoff280938               0.106025743    1.0  obsgroup
srunoff280940               0.11098865    1.0  obsgroup
srunoff280942               0.115199602    1.0  obsgroup
srunoff280944               0.115500384    1.0  obsgroup
srunoff280946               0.113094126    1.0  obsgroup
srunoff280948               0.114447646    1.0  obsgroup
srunoff280950               0.117455469    1.0  obsgroup
srunoff280952               0.118057033    1.0  obsgroup
srunoff280954               0.118357815    1.0  obsgroup
srunoff280956               0.118808989    1.0  obsgroup
srunoff280958               0.11895938    1.0  obsgroup
srunoff281000               0.120764073    1.0  obsgroup
srunoff281002               0.120463291    1.0  obsgroup
srunoff281004               0.119861727    1.0  obsgroup
srunoff281006               0.120162509    1.0  obsgroup
srunoff281008               0.120914465    1.0  obsgroup
srunoff281010               0.120914465    1.0  obsgroup
srunoff281012               0.121064856    1.0  obsgroup
srunoff281014               0.120613682    1.0  obsgroup
srunoff281016               0.121064856    1.0  obsgroup
srunoff281018               0.121215247    1.0  obsgroup
srunoff281020               0.121064856    1.0  obsgroup
srunoff281022               0.120613682    1.0  obsgroup
srunoff281024               0.120012118    1.0  obsgroup
srunoff281026               0.119711336    1.0  obsgroup
srunoff281028               0.119109771    1.0  obsgroup
srunoff281030               0.117906642    1.0  obsgroup
srunoff281032               0.118207424    1.0  obsgroup
srunoff281034               0.117756251    1.0  obsgroup
srunoff281036               0.117455469    1.0  obsgroup
srunoff281038               0.11760586    1.0  obsgroup
srunoff281040               0.117004295    1.0  obsgroup
srunoff281042               0.11760586    1.0  obsgroup
srunoff281044               0.117756251    1.0  obsgroup
srunoff281046               0.119260162    1.0  obsgroup
srunoff281048               0.123471114    1.0  obsgroup
srunoff281050               0.124674243    1.0  obsgroup
srunoff281052               0.124523852    1.0  obsgroup
srunoff281054               0.126478936    1.0  obsgroup
srunoff281056               0.127982847    1.0  obsgroup
srunoff281058               0.12828363    1.0  obsgroup
srunoff281100               0.128885194    1.0  obsgroup
srunoff281102               0.130088323    1.0  obsgroup
srunoff281104               0.131141061    1.0  obsgroup
srunoff281106               0.132644972    1.0  obsgroup
srunoff281108               0.133547319    1.0  obsgroup
srunoff281110               0.134148884    1.0  obsgroup
srunoff281112               0.132795363    1.0  obsgroup
srunoff281114               0.133096146    1.0  obsgroup
srunoff281116               0.134299275    1.0  obsgroup
srunoff281118               0.134600057    1.0  obsgroup
srunoff281120               0.133396928    1.0  obsgroup
srunoff281122               0.134148884    1.0  obsgroup
srunoff281124               0.134299275    1.0  obsgroup
srunoff281126               0.135352013    1.0  obsgroup
srunoff281128               0.137156706    1.0  obsgroup
srunoff281130               0.139562964    1.0  obsgroup
srunoff281132               0.139412573    1.0  obsgroup
srunoff281134               0.139713355    1.0  obsgroup
srunoff281136               0.138359835    1.0  obsgroup
srunoff281138               0.137457488    1.0  obsgroup
srunoff281140               0.13640475    1.0  obsgroup
srunoff281142               0.137457488    1.0  obsgroup
srunoff281144               0.137307097    1.0  obsgroup
srunoff281146               0.138359835    1.0  obsgroup
srunoff281148               0.139262182    1.0  obsgroup
srunoff281150               0.139562964    1.0  obsgroup
srunoff281152               0.138510226    1.0  obsgroup
srunoff281154               0.137156706    1.0  obsgroup
srunoff281156               0.135502404    1.0  obsgroup
srunoff281158               0.134148884    1.0  obsgroup
srunoff281200               0.132644972    1.0  obsgroup
srunoff281202               0.129185976    1.0  obsgroup
srunoff281204               0.126478936    1.0  obsgroup
srunoff281206               0.12301994    1.0  obsgroup
srunoff281208               0.1203129    1.0  obsgroup
srunoff281210               0.116553122    1.0  obsgroup
srunoff281212               0.113094126    1.0  obsgroup
srunoff281214               0.108582392    1.0  obsgroup
srunoff281216               0.104822614    1.0  obsgroup
srunoff281218               0.100762054    1.0  obsgroup
srunoff281220               0.096551102    1.0  obsgroup
srunoff281222               0.092791324    1.0  obsgroup
srunoff281224               0.088881155    1.0  obsgroup
srunoff281226               0.084519812    1.0  obsgroup
srunoff281228               0.080459252    1.0  obsgroup
srunoff281230               0.0762483    1.0  obsgroup
srunoff281232               0.072638913    1.0  obsgroup
srunoff281234               0.069029526    1.0  obsgroup
srunoff281236               0.065119357    1.0  obsgroup
srunoff281238               0.06150997    1.0  obsgroup
srunoff281240               0.05880293    1.0  obsgroup
srunoff281242               0.055193543    1.0  obsgroup
srunoff281244               0.052336112    1.0  obsgroup
srunoff281246               0.049328289    1.0  obsgroup
srunoff281248               0.046320467    1.0  obsgroup
srunoff281250               0.044214991    1.0  obsgroup
srunoff281252               0.041808733    1.0  obsgroup
srunoff281254               0.039402475    1.0  obsgroup
srunoff281256               0.037296999    1.0  obsgroup
srunoff281258               0.035341914    1.0  obsgroup
srunoff281300               0.033236439    1.0  obsgroup
srunoff281302               0.032183701    1.0  obsgroup
srunoff281304               0.030529398    1.0  obsgroup
srunoff281306               0.029476661    1.0  obsgroup
srunoff281308               0.028724705    1.0  obsgroup
srunoff281310               0.027521576    1.0  obsgroup
srunoff281312               0.027371185    1.0  obsgroup
srunoff281314               0.027220794    1.0  obsgroup
srunoff281316               0.02714164    1.0  obsgroup
srunoff281318               0.027062487    1.0  obsgroup
srunoff281320               0.026983334    1.0  obsgroup
srunoff281322               0.026904181    1.0  obsgroup
srunoff281324               0.026825028    1.0  obsgroup
srunoff281326               0.026745874    1.0  obsgroup
srunoff281328               0.026666721    1.0  obsgroup
srunoff281330               0.026587568    1.0  obsgroup
srunoff281332               0.026508415    1.0  obsgroup
srunoff281334               0.026429261    1.0  obsgroup
srunoff281336               0.026350108    1.0  obsgroup
srunoff281338               0.026270955    1.0  obsgroup
srunoff281340               0.026191802    1.0  obsgroup
srunoff281342               0.026112648    1.0  obsgroup
srunoff281344               0.026033495    1.0  obsgroup
srunoff281346               0.025954342    1.0  obsgroup
srunoff281348               0.025875189    1.0  obsgroup
srunoff281350               0.025796036    1.0  obsgroup
srunoff281352               0.025731231    1.0  obsgroup
srunoff281354               0.025280227    1.0  obsgroup
srunoff281356               0.024845    1.0  obsgroup
srunoff281358               0.024216044    1.0  obsgroup
srunoff281400               0.023809302    1.0  obsgroup