pcf
* control data
restart estimation
   2    24352    1    0    1
    1     1 single point 1 0 0
  5.0   2.0   0.3    0.01  10
  5.0   5.0   0.001
  0.1
   30  0.01     4     3  0.01     3
    1     1     1
* parameter groups
paragroup  relative 0.01  0.0  switch  2.0 parabolic

* parameter data
F0tp_wdth_vr           fixed  factor    9.0100000E+01    0    100    paragroup  1.0  0.0  1
F0prcnt_ntll           none  factor    1.4939467E+01    0    50    paragroup  1.0  0.0  1
* observation groups
obsgroup

* observation data
dflow01061040               0.005065042    1.0  obsgroup
dflow01061045               0.008134418    1.0  obsgroup
dflow01061050               0.008134413    1.0  obsgroup
dflow01061055               0.007982723    1.0  obsgroup
dflow01061100               0.007982718    1.0  obsgroup
dflow01061105               0.007982714    1.0  obsgroup
dflow01061110               0.007831068    1.0  obsgroup
dflow01061115               0.007679421    1.0  obsgroup
dflow01061120               0.007831059    1.0  obsgroup
dflow01061125               0.007679412    1.0  obsgroup
dflow01061130               0.007679407    1.0  obsgroup
dflow01061135               0.007527715    1.0  obsgroup
dflow01061140               0.007527711    1.0  obsgroup
dflow01061145               0.007527706    1.0  obsgroup
dflow01061150               0.007527702    1.0  obsgroup
dflow01061155               0.007375921    1.0  obsgroup
dflow01061200               0.007375917    1.0  obsgroup
dflow01061205               0.007224006    1.0  obsgroup
dflow01061210               0.007224002    1.0  obsgroup
dflow01061215               0.007223998    1.0  obsgroup
dflow01061220               0.007071916    1.0  obsgroup
dflow01061225               0.007071912    1.0  obsgroup
dflow01061230               0.007223986    1.0  obsgroup
dflow01061235               0.006919617    1.0  obsgroup
dflow01061240               0.0070719    1.0  obsgroup
dflow01061245               0.007071896    1.0  obsgroup
dflow01061250               0.006767072    1.0  obsgroup
dflow01061255               0.006919602    1.0  obsgroup
dflow01061300               0.006767065    1.0  obsgroup
dflow01061305               0.006767061    1.0  obsgroup
dflow01061310               0.006767057    1.0  obsgroup
dflow01061315               0.006767054    1.0  obsgroup
dflow01061320               0.006614236    1.0  obsgroup
dflow01061325               0.006614233    1.0  obsgroup
dflow01061330               0.006614229    1.0  obsgroup
dflow01061335               0.006461099    1.0  obsgroup
dflow01061340               0.006461095    1.0  obsgroup
dflow01061345               0.006307622    1.0  obsgroup
dflow01061350               0.006461088    1.0  obsgroup
dflow01061355               0.006307615    1.0  obsgroup
dflow01061400               0.006461081    1.0  obsgroup
dflow01061405               0.006307608    1.0  obsgroup
dflow01061410               0.006307605    1.0  obsgroup
dflow01061415               0.006307602    1.0  obsgroup
dflow01061420               0.006307598    1.0  obsgroup
dflow01061425               0.006307595    1.0  obsgroup
dflow01061430               0.006153753    1.0  obsgroup
dflow01061435               0.006307588    1.0  obsgroup
dflow01061440               0.006153746    1.0  obsgroup
dflow01061445               0.006153743    1.0  obsgroup
dflow01061450               0.005999507    1.0  obsgroup
dflow01061455               0.005999504    1.0  obsgroup
dflow01061500               0.005999501    1.0  obsgroup
dflow01061505               0.005999497    1.0  obsgroup
dflow01061510               0.005999494    1.0  obsgroup
dflow01061515               0.005999491    1.0  obsgroup
dflow01061520               0.005844841    1.0  obsgroup
dflow01061525               0.005999485    1.0  obsgroup
dflow01061530               0.005689756    1.0  obsgroup
dflow01061535               0.005844832    1.0  obsgroup
dflow01061540               0.00568975    1.0  obsgroup
dflow01061545               0.005844826    1.0  obsgroup
dflow01061550               0.005534219    1.0  obsgroup
dflow01061555               0.005689741    1.0  obsgroup
dflow01061600               0.005689738    1.0  obsgroup
dflow01061605               0.005689735    1.0  obsgroup
dflow01061610               0.005534208    1.0  obsgroup
dflow01061615               0.005534205    1.0  obsgroup
dflow01061620               0.005378221    1.0  obsgroup
dflow01061625               0.005534199    1.0  obsgroup
dflow01061630               0.005378216    1.0  obsgroup
dflow01061635               0.005378213    1.0  obsgroup
dflow01061640               0.005221768    1.0  obsgroup
dflow01061645               0.005378207    1.0  obsgroup
dflow01061650               0.005378205    1.0  obsgroup
dflow01061655               0.00522176    1.0  obsgroup
dflow01061700               0.005378199    1.0  obsgroup
dflow01061705               0.005221754    1.0  obsgroup
dflow01061710               0.005378194    1.0  obsgroup
dflow01061715               0.005221749    1.0  obsgroup
dflow01061720               0.005378188    1.0  obsgroup
dflow01061725               0.005221744    1.0  obsgroup
dflow01061730               0.004985696    1.0  obsgroup
dflow01061735               0.004749648    1.0  obsgroup
dflow01061740               0.005064831    1.0  obsgroup
dflow01061745               0.005064828    1.0  obsgroup
dflow01061750               0.005064826    1.0  obsgroup
dflow01061755               0.005064823    1.0  obsgroup
dflow01061800               0.005064821    1.0  obsgroup
dflow01061805               0.004907453    1.0  obsgroup
dflow01061810               0.005064816    1.0  obsgroup
dflow01061815               0.004907448    1.0  obsgroup
dflow01061820               0.005064811    1.0  obsgroup
dflow01061825               0.004907443    1.0  obsgroup
dflow01061830               0.005064806    1.0  obsgroup
dflow01061835               0.005378147    1.0  obsgroup
dflow01061840               0.005844718    1.0  obsgroup
dflow01061845               0.00568964    1.0  obsgroup
dflow01061850               0.005689637    1.0  obsgroup
dflow01061855               0.005378136    1.0  obsgroup
dflow01061900               0.005221694    1.0  obsgroup
dflow01061905               0.005378131    1.0  obsgroup
dflow01061910               0.005378128    1.0  obsgroup
dflow01061915               0.005689622    1.0  obsgroup
dflow01061920               0.006153561    1.0  obsgroup
dflow01061925               0.006153558    1.0  obsgroup
dflow01061930               0.006153555    1.0  obsgroup
dflow01061935               0.006153551    1.0  obsgroup
dflow01061940               0.005999322    1.0  obsgroup
dflow01061945               0.005844678    1.0  obsgroup
dflow01061950               0.005844675    1.0  obsgroup
dflow01061955               0.005844672    1.0  obsgroup
dflow01062000               0.005689596    1.0  obsgroup
dflow01062005               0.005689593    1.0  obsgroup
dflow01062010               0.00568959    1.0  obsgroup
dflow01062015               0.005689587    1.0  obsgroup
dflow01062020               0.005689584    1.0  obsgroup
dflow01062025               0.005689581    1.0  obsgroup
dflow01062030               0.005689578    1.0  obsgroup
dflow01062035               0.005844647    1.0  obsgroup
dflow01062040               0.005689572    1.0  obsgroup
dflow01062045               0.005689569    1.0  obsgroup
dflow01062050               0.005999277    1.0  obsgroup
dflow01062055               0.006613906    1.0  obsgroup
dflow01062100               0.006919228    1.0  obsgroup
dflow01062105               0.0070715    1.0  obsgroup
dflow01062110               0.007071496    1.0  obsgroup
dflow01062115               0.007071493    1.0  obsgroup
dflow01062120               0.007223555    1.0  obsgroup
dflow01062125               0.007223551    1.0  obsgroup
dflow01062130               0.007527206    1.0  obsgroup
dflow01062135               0.007527202    1.0  obsgroup
dflow01062140               0.007678873    1.0  obsgroup
dflow01062145               0.007830498    1.0  obsgroup
dflow01062150               0.007830493    1.0  obsgroup
dflow01062155               0.007982117    1.0  obsgroup
dflow01062200               0.008285545    1.0  obsgroup
dflow01062205               0.008589518    1.0  obsgroup
dflow01062210               0.00889441    1.0  obsgroup
dflow01062215               0.00935429    1.0  obsgroup
dflow01062220               0.009818308    1.0  obsgroup
dflow01062225               0.01013053    1.0  obsgroup
dflow01062230               0.010130524    1.0  obsgroup
dflow01062235               0.010445424    1.0  obsgroup
dflow01062240               0.010923433    1.0  obsgroup
dflow01062245               0.01124625    1.0  obsgroup
dflow01062250               0.01190278    1.0  obsgroup
dflow01062255               0.012236798    1.0  obsgroup
dflow01062300               0.012574792    1.0  obsgroup
dflow01062305               0.01343739    1.0  obsgroup
dflow01062310               0.013966837    1.0  obsgroup
dflow01062315               0.01523406    1.0  obsgroup
dflow01062320               0.016537611    1.0  obsgroup
dflow01062325               0.018054346    1.0  obsgroup
dflow01062330               0.019389219    1.0  obsgroup
dflow01062335               0.020531704    1.0  obsgroup
dflow01062340               0.022247502    1.0  obsgroup
dflow01062345               0.024636703    1.0  obsgroup
dflow01062350               0.027214158    1.0  obsgroup
dflow01062355               0.029175878    1.0  obsgroup
dflow01070000               0.031582136    1.0  obsgroup
dflow01070005               0.03474035    1.0  obsgroup
dflow01070010               0.038500128    1.0  obsgroup
dflow01070015               0.041056777    1.0  obsgroup
dflow01070020               0.043613426    1.0  obsgroup
dflow01070025               0.046019684    1.0  obsgroup
dflow01070030               0.048576333    1.0  obsgroup
dflow01070035               0.050080245    1.0  obsgroup
dflow01070040               0.051433765    1.0  obsgroup
dflow01070045               0.052035329    1.0  obsgroup
dflow01070250               0.052336112    1.0  obsgroup
dflow01070255               0.05218572    1.0  obsgroup
dflow01070300               0.051734547    1.0  obsgroup
dflow01070305               0.051283374    1.0  obsgroup
dflow01070310               0.050681809    1.0  obsgroup
dflow01070315               0.049629071    1.0  obsgroup
dflow01070320               0.048877116    1.0  obsgroup
dflow01070325               0.04812516    1.0  obsgroup
dflow01070330               0.047072422    1.0  obsgroup
dflow01070345               0.046170075    1.0  obsgroup
dflow01070350               0.045267729    1.0  obsgroup
dflow01070355               0.044515773    1.0  obsgroup
dflow01070410               0.043312644    1.0  obsgroup
dflow01070415               0.042560688    1.0  obsgroup
dflow01070420               0.041507951    1.0  obsgroup
dflow01070545               0.040906386    1.0  obsgroup
dflow01070550               0.040455213    1.0  obsgroup
dflow01070555               0.039552866    1.0  obsgroup
dflow01070805               0.038951301    1.0  obsgroup
dflow01070810               0.038199346    1.0  obsgroup
dflow01070815               0.037146608    1.0  obsgroup
dflow01071155               0.036996217    1.0  obsgroup
dflow01071200               0.03609387    1.0  obsgroup
dflow01071205               0.035341914    1.0  obsgroup
dflow01071520               0.034589959    1.0  obsgroup
dflow01071525               0.034138785    1.0  obsgroup
dflow01071530               0.033086048    1.0  obsgroup
dflow01071550               0.032785265    1.0  obsgroup
dflow01071555               0.032634874    1.0  obsgroup
dflow01071600               0.03203331    1.0  obsgroup
dflow01071610               0.031431745    1.0  obsgroup
dflow01071615               0.030980572    1.0  obsgroup
dflow01071620               0.030529398    1.0  obsgroup
dflow01071625               0.030228616    1.0  obsgroup
dflow01071630               0.029927834    1.0  obsgroup
dflow01071635               0.029927834    1.0  obsgroup
dflow01071640               0.029025487    1.0  obsgroup
dflow01071645               0.028875096    1.0  obsgroup
dflow01071650               0.028574314    1.0  obsgroup
dflow01071655               0.028273532    1.0  obsgroup
dflow01071700               0.02812314    1.0  obsgroup
dflow01071705               0.027220794    1.0  obsgroup
dflow01071710               0.027145598    1.0  obsgroup
dflow01071715               0.027070403    1.0  obsgroup
dflow01071720               0.026995207    1.0  obsgroup
dflow01071725               0.026920011    1.0  obsgroup
dflow01071730               0.026844816    1.0  obsgroup
dflow01071735               0.02676962    1.0  obsgroup
dflow01071740               0.026204699    1.0  obsgroup
dflow01071745               0.025967265    1.0  obsgroup
dflow01071750               0.025507205    1.0  obsgroup
dflow01071755               0.025064355    1.0  obsgroup
dflow01071800               0.024635935    1.0  obsgroup
dflow01071805               0.024014962    1.0  obsgroup
dflow01071810               0.02361225    1.0  obsgroup
dflow01071815               0.023020499    1.0  obsgroup
dflow01071820               0.022631971    1.0  obsgroup
dflow01071825               0.022055043    1.0  obsgroup
dflow01071830               0.022055032    1.0  obsgroup
dflow01071835               0.021482272    1.0  obsgroup
dflow01071840               0.021291841    1.0  obsgroup
dflow01071845               0.02110154    1.0  obsgroup
dflow01071850               0.020721126    1.0  obsgroup
dflow01071855               0.020721116    1.0  obsgroup
dflow01071900               0.020340676    1.0  obsgroup
dflow01071905               0.020150373    1.0  obsgroup
dflow01071910               0.019959998    1.0  obsgroup
dflow01071915               0.019769543    1.0  obsgroup
dflow01071920               0.019579007    1.0  obsgroup
dflow01071925               0.019197731    1.0  obsgroup
dflow01071930               0.019007007    1.0  obsgroup
dflow01071935               0.018625506    1.0  obsgroup
dflow01071940               0.018625497    1.0  obsgroup
dflow01071945               0.018244093    1.0  obsgroup
dflow01071950               0.017863048    1.0  obsgroup
dflow01071955               0.017482662    1.0  obsgroup
dflow01072000               0.017292813    1.0  obsgroup
dflow01072005               0.016914037    1.0  obsgroup
dflow01072010               0.016536769    1.0  obsgroup
dflow01072015               0.016348807    1.0  obsgroup
dflow01072020               0.016161354    1.0  obsgroup
dflow01072025               0.016161345    1.0  obsgroup
dflow01072030               0.015602484    1.0  obsgroup
dflow01072035               0.015417487    1.0  obsgroup
dflow01072040               0.015233203    1.0  obsgroup
dflow01072045               0.015233195    1.0  obsgroup
dflow01072050               0.01504966    1.0  obsgroup
dflow01072055               0.014684981    1.0  obsgroup
dflow01072100               0.014503891    1.0  obsgroup
dflow01072105               0.014323676    1.0  obsgroup
dflow01072110               0.014323668    1.0  obsgroup
dflow01072115               0.014144352    1.0  obsgroup
dflow01072120               0.013788516    1.0  obsgroup
dflow01072125               0.013612027    1.0  obsgroup
dflow01072130               0.013612019    1.0  obsgroup
dflow01072135               0.013261988    1.0  obsgroup
dflow01072140               0.013088461    1.0  obsgroup
dflow01072145               0.012915937    1.0  obsgroup
dflow01072150               0.012744422    1.0  obsgroup
dflow01072155               0.012573916    1.0  obsgroup
dflow01072200               0.012573909    1.0  obsgroup
dflow01072205               0.01240441    1.0  obsgroup
dflow01072210               0.012235913    1.0  obsgroup
dflow01072215               0.012068412    1.0  obsgroup
dflow01072220               0.011901895    1.0  obsgroup
dflow01072225               0.011901888    1.0  obsgroup
dflow01072230               0.011901881    1.0  obsgroup
dflow01072235               0.011736336    1.0  obsgroup
dflow01072240               0.011571747    1.0  obsgroup
dflow01072245               0.011408096    1.0  obsgroup
dflow01072250               0.011245362    1.0  obsgroup
dflow01072255               0.011083522    1.0  obsgroup
dflow01072300               0.011083515    1.0  obsgroup
dflow01072305               0.011083509    1.0  obsgroup
dflow01072310               0.011083502    1.0  obsgroup
dflow01072315               0.01092253    1.0  obsgroup
dflow01072320               0.010762399    1.0  obsgroup
dflow01072325               0.010603077    1.0  obsgroup
dflow01072330               0.010444534    1.0  obsgroup
dflow01072335               0.010444527    1.0  obsgroup
dflow01072340               0.010444521    1.0  obsgroup
dflow01072345               0.010444515    1.0  obsgroup
dflow01072350               0.010286716    1.0  obsgroup
dflow01072355               0.01028671    1.0  obsgroup
dflow01080000               0.010129619    1.0  obsgroup
dflow01080005               0.009973198    1.0  obsgroup
dflow01080010               0.009817408    1.0  obsgroup
dflow01080015               0.009817402    1.0  obsgroup
dflow01080020               0.009817397    1.0  obsgroup
dflow01080025               0.009817391    1.0  obsgroup
dflow01080030               0.009662192    1.0  obsgroup
dflow01080035               0.009507541    1.0  obsgroup
dflow01080040               0.009507535    1.0  obsgroup
dflow01080045               0.00935339    1.0  obsgroup
dflow01080050               0.009353384    1.0  obsgroup
dflow01080055               0.009353379    1.0  obsgroup
dflow01080100               0.009199694    1.0  obsgroup
dflow01080105               0.009199689    1.0  obsgroup
dflow01080110               0.009199683    1.0  obsgroup
dflow01080115               0.009046415    1.0  obsgroup
dflow01080120               0.009046409    1.0  obsgroup
dflow01080125               0.009046404    1.0  obsgroup
dflow01080130               0.008740936    1.0  obsgroup
dflow01080135               0.008893501    1.0  obsgroup
dflow01080140               0.008740926    1.0  obsgroup
dflow01080145               0.008740921    1.0  obsgroup
dflow01080150               0.008588624    1.0  obsgroup
dflow01080155               0.008436556    1.0  obsgroup
dflow01080200               0.008588614    1.0  obsgroup
dflow01080205               0.008436547    1.0  obsgroup
dflow01080210               0.008436542    1.0  obsgroup
dflow01080215               0.008436537    1.0  obsgroup
dflow01080220               0.008436532    1.0  obsgroup
dflow01080225               0.008436527    1.0  obsgroup
dflow01080230               0.008284644    1.0  obsgroup
dflow01080235               0.008284639    1.0  obsgroup
dflow01080240               0.008132892    1.0  obsgroup
dflow01080245               0.008284629    1.0  obsgroup
dflow01080250               0.008132883    1.0  obsgroup
dflow01080255               0.008132878    1.0  obsgroup
dflow01080300               0.007981221    1.0  obsgroup
dflow01080305               0.007981217    1.0  obsgroup
dflow01080310               0.007981212    1.0  obsgroup
dflow01080315               0.0078296    1.0  obsgroup
dflow01080320               0.007829596    1.0  obsgroup
dflow01080325               0.007829591    1.0  obsgroup
dflow01080330               0.007829587    1.0  obsgroup
dflow01080335               0.007829582    1.0  obsgroup
dflow01080340               0.007829578    1.0  obsgroup
dflow01080345               0.007829573    1.0  obsgroup
dflow01080350               0.007677961    1.0  obsgroup
dflow01080355               0.007829564    1.0  obsgroup
dflow01080400               0.007677952    1.0  obsgroup
dflow01080405               0.007677948    1.0  obsgroup
dflow01080410               0.007677943    1.0  obsgroup
dflow01080415               0.007526286    1.0  obsgroup
dflow01080420               0.007677934    1.0  obsgroup
dflow01080425               0.007374536    1.0  obsgroup
dflow01080430               0.007677926    1.0  obsgroup
dflow01080435               0.007526269    1.0  obsgroup
dflow01080440               0.007829524    1.0  obsgroup
dflow01080445               0.007829519    1.0  obsgroup
dflow01080450               0.00813277    1.0  obsgroup
dflow01080455               0.008132765    1.0  obsgroup
dflow01080500               0.008436375    1.0  obsgroup
dflow01080505               0.00843637    1.0  obsgroup
dflow01080510               0.008893277    1.0  obsgroup
dflow01080515               0.009199419    1.0  obsgroup
dflow01080520               0.00981705    1.0  obsgroup
dflow01080525               0.010129232    1.0  obsgroup
dflow01080530               0.01092205    1.0  obsgroup
dflow01080535               0.01140755    1.0  obsgroup
dflow01080540               0.012235276    1.0  obsgroup
dflow01080545               0.013611257    1.0  obsgroup
dflow01080550               0.015232287    1.0  obsgroup
dflow01080555               0.016912986    1.0  obsgroup
dflow01080600               0.018624326    1.0  obsgroup
dflow01080605               0.020339347    1.0  obsgroup
dflow01080610               0.022630432    1.0  obsgroup
dflow01080615               0.026445623    1.0  obsgroup
dflow01080620               0.028574314    1.0  obsgroup
dflow01080625               0.033687612    1.0  obsgroup
dflow01080630               0.039853648    1.0  obsgroup
dflow01080635               0.046170075    1.0  obsgroup
dflow01080640               0.053088067    1.0  obsgroup
dflow01080645               0.058201365    1.0  obsgroup
dflow01080650               0.065570531    1.0  obsgroup
dflow01080655               0.072488522    1.0  obsgroup
dflow01080700               0.077902603    1.0  obsgroup
dflow01080705               0.081361599    1.0  obsgroup
dflow01080710               0.084820595    1.0  obsgroup
dflow01080715               0.088129199    1.0  obsgroup
dflow01080720               0.09083624    1.0  obsgroup
dflow01080725               0.093092106    1.0  obsgroup
dflow01080730               0.095347973    1.0  obsgroup
dflow01080735               0.10031088    1.0  obsgroup
dflow01080740               0.106025743    1.0  obsgroup
dflow01080745               0.11098865    1.0  obsgroup
dflow01080750               0.115199602    1.0  obsgroup
dflow01080755               0.115500384    1.0  obsgroup
dflow01080800               0.113094126    1.0  obsgroup
dflow01080805               0.114447646    1.0  obsgroup
dflow01080810               0.117455469    1.0  obsgroup
dflow01080815               0.118057033    1.0  obsgroup
dflow01080820               0.118357815    1.0  obsgroup
dflow01080825               0.118808989    1.0  obsgroup
dflow01080830               0.11895938    1.0  obsgroup
dflow01080835               0.120764073    1.0  obsgroup
dflow01080840               0.120463291    1.0  obsgroup
dflow01080845               0.119861727    1.0  obsgroup
dflow01080850               0.120162509    1.0  obsgroup
dflow01080855               0.120914465    1.0  obsgroup
dflow01080900               0.120914465    1.0  obsgroup
dflow01080905               0.121064856    1.0  obsgroup
dflow01080910               0.120613682    1.0  obsgroup
dflow01080915               0.121064856    1.0  obsgroup
dflow01080920               0.121215247    1.0  obsgroup
dflow01080925               0.121064856    1.0  obsgroup
dflow01080930               0.120613682    1.0  obsgroup
dflow01080935               0.120012118    1.0  obsgroup
dflow01080940               0.119711336    1.0  obsgroup
dflow01080945               0.119109771    1.0  obsgroup
dflow01080950               0.117906642    1.0  obsgroup
dflow01080955               0.118207424    1.0  obsgroup
dflow01081000               0.117756251    1.0  obsgroup
dflow01081005               0.117455469    1.0  obsgroup
dflow01081010               0.11760586    1.0  obsgroup
dflow01081015               0.117004295    1.0  obsgroup
dflow01081020               0.11760586    1.0  obsgroup
dflow01081025               0.117756251    1.0  obsgroup
dflow01081030               0.119260162    1.0  obsgroup
dflow01081035               0.123471114    1.0  obsgroup
dflow01081040               0.124674243    1.0  obsgroup
dflow01081045               0.124523852    1.0  obsgroup
dflow01081050               0.126478936    1.0  obsgroup
dflow01081055               0.127982847    1.0  obsgroup
dflow01081100               0.12828363    1.0  obsgroup
dflow01081105               0.128885194    1.0  obsgroup
dflow01081110               0.130088323    1.0  obsgroup
dflow01081115               0.131141061    1.0  obsgroup
dflow01081120               0.132644972    1.0  obsgroup
dflow01081125               0.133547319    1.0  obsgroup
dflow01081130               0.134148884    1.0  obsgroup
dflow01081135               0.132795363    1.0  obsgroup
dflow01081140               0.133096146    1.0  obsgroup
dflow01081145               0.134299275    1.0  obsgroup
dflow01081150               0.134600057    1.0  obsgroup
dflow01081155               0.133396928    1.0  obsgroup
dflow01081200               0.134148884    1.0  obsgroup
dflow01081205               0.134299275    1.0  obsgroup
dflow01081210               0.135352013    1.0  obsgroup
dflow01081215               0.137156706    1.0  obsgroup
dflow01081220               0.139562964    1.0  obsgroup
dflow01081225               0.139412573    1.0  obsgroup
dflow01081230               0.139713355    1.0  obsgroup
dflow01081235               0.138359835    1.0  obsgroup
dflow01081240               0.137457488    1.0  obsgroup
dflow01081245               0.13640475    1.0  obsgroup
dflow01081250               0.137457488    1.0  obsgroup
dflow01081255               0.137307097    1.0  obsgroup
dflow01081300               0.138359835    1.0  obsgroup
dflow01081305               0.139262182    1.0  obsgroup
dflow01081310               0.139562964    1.0  obsgroup
dflow01081315               0.138510226    1.0  obsgroup
dflow01081320               0.137156706    1.0  obsgroup
dflow01081325               0.135502404    1.0  obsgroup
dflow01081330               0.134148884    1.0  obsgroup
dflow01081335               0.132644972    1.0  obsgroup
dflow01081340               0.129185976    1.0  obsgroup
dflow01081345               0.126478936    1.0  obsgroup
dflow01081350               0.12301994    1.0  obsgroup
dflow01081355               0.1203129    1.0  obsgroup
dflow01081400               0.116553122    1.0  obsgroup
dflow01081405               0.113094126    1.0  obsgroup
dflow01081410               0.108582392    1.0  obsgroup
dflow01081415               0.104822614    1.0  obsgroup
dflow01081420               0.100762054    1.0  obsgroup
dflow01081425               0.096551102    1.0  obsgroup
dflow01081430               0.092791324    1.0  obsgroup
dflow01081435               0.088881155    1.0  obsgroup
dflow01081440               0.084519812    1.0  obsgroup
dflow01081445               0.080459252    1.0  obsgroup
dflow01081450               0.0762483    1.0  obsgroup
dflow01081455               0.072638913    1.0  obsgroup
dflow01081500               0.069029526    1.0  obsgroup
dflow01081505               0.065119357    1.0  obsgroup
dflow01081510               0.06150997    1.0  obsgroup
dflow01081515               0.05880293    1.0  obsgroup
dflow01081520               0.055193543    1.0  obsgroup
dflow01081525               0.052336112    1.0  obsgroup
dflow01081530               0.049328289    1.0  obsgroup
dflow01081535               0.046320467    1.0  obsgroup
dflow01081540               0.044214991    1.0  obsgroup
dflow01081545               0.041808733    1.0  obsgroup
dflow01081550               0.039402475    1.0  obsgroup
dflow01081555               0.037296999    1.0  obsgroup
dflow01081600               0.035341914    1.0  obsgroup
dflow01081605               0.033236439    1.0  obsgroup
dflow01081610               0.032183701    1.0  obsgroup
dflow01081615               0.030529398    1.0  obsgroup
dflow01081620               0.029476661    1.0  obsgroup
dflow01081625               0.028724705    1.0  obsgroup
dflow01081630               0.027521576    1.0  obsgroup
dflow01081635               0.027371185    1.0  obsgroup
dflow01081640               0.027220794    1.0  obsgroup
dflow01081645               0.02714164    1.0  obsgroup
dflow01081650               0.027062487    1.0  obsgroup
dflow01081655               0.026983334    1.0  obsgroup
dflow01081700               0.026904181    1.0  obsgroup
dflow01081705               0.026825028    1.0  obsgroup
dflow01081710               0.026745874    1.0  obsgroup
dflow01081715               0.026666721    1.0  obsgroup
dflow01081720               0.026587568    1.0  obsgroup
dflow01081725               0.026508415    1.0  obsgroup
dflow01081730               0.026429261    1.0  obsgroup
dflow01081735               0.026350108    1.0  obsgroup
dflow01081740               0.026270955    1.0  obsgroup
dflow01081745               0.026191802    1.0  obsgroup
dflow01081750               0.026112648    1.0  obsgroup
dflow01081755               0.026033495    1.0  obsgroup
dflow01081800               0.025954342    1.0  obsgroup
dflow01081805               0.025875189    1.0  obsgroup
dflow01081810               0.025796036    1.0  obsgroup
dflow01081815               0.025731231    1.0  obsgroup
dflow01081820               0.025280227    1.0  obsgroup
dflow01081825               0.024845    1.0  obsgroup
dflow01081830               0.024216044    1.0  obsgroup